4IAR_ERM_A_2001
     RDKit          3D

 43 50  0  0  0  0  0  0  0  0999 V2000
   -5.5596  -20.1749   23.7366 C   0  0  0  0  0  0  0  0  0  0  0  0
   -6.1839  -20.7407   24.8121 N   0  0  0  0  0  0  0  0  0  0  0  0
  -11.6526  -16.7241   19.7965 O   0  0  0  0  0  0  0  0  0  0  0  0
  -10.0620  -20.3228   23.4983 C   0  0  0  0  0  0  0  0  0  0  0  0
   -9.8752  -20.9595   24.7534 C   0  0  0  0  0  0  0  0  0  0  0  0
   -8.5782  -21.1294   25.2955 C   0  0  0  0  0  0  0  0  0  0  0  0
   -7.5036  -20.6395   24.5516 C   0  0  0  0  0  0  0  0  0  0  0  0
   -7.7089  -20.0252   23.3657 C   0  0  0  0  0  0  0  0  0  0  0  0
   -6.6441  -17.2511   19.2365 C   0  0  0  0  0  0  0  0  0  0  0  0
  -11.4218  -17.8036   19.1868 C   0  0  0  0  0  0  0  0  0  0  0  0
  -13.7631  -17.8608   18.1445 C   0  0  0  0  0  0  0  0  0  0  0  0
  -14.5043  -17.8155   19.4122 C   0  0  0  0  0  0  0  0  0  0  0  0
  -15.8923  -16.1070   20.6832 C   0  0  0  0  0  0  0  0  0  0  0  0
   -7.6915  -18.2152   19.5389 N   0  0  0  0  0  0  0  0  0  0  0  0
   -6.5103  -19.7063   22.8341 C   0  0  0  0  0  0  0  0  0  0  0  0
  -13.7058  -16.5229   17.6686 O   0  0  0  0  0  0  0  0  0  0  0  0
  -16.8510  -15.1016   20.1019 C   0  0  0  0  0  0  0  0  0  0  0  0
  -17.1527  -13.3059   18.3315 C   0  0  0  0  0  0  0  0  0  0  0  0
  -16.5631  -13.0994   16.9452 C   0  0  0  0  0  0  0  0  0  0  0  0
  -15.4346  -14.1146   16.8020 C   0  0  0  0  0  0  0  0  0  0  0  0
  -15.7240  -15.1894   17.8354 C   0  0  0  0  0  0  0  0  0  0  0  0
  -14.4709  -15.7020   18.5515 C   0  0  0  0  0  0  0  0  0  0  0  0
  -14.5023  -18.7241   17.1390 C   0  0  0  0  0  0  0  0  0  0  0  0
  -15.1996  -15.5088   21.9047 C   0  0  0  0  0  0  0  0  0  0  0  0
  -14.3977  -16.5332   22.6370 C   0  0  0  0  0  0  0  0  0  0  0  0
  -13.0053  -16.4108   22.6921 C   0  0  0  0  0  0  0  0  0  0  0  0
   -6.3773  -19.1804   21.4360 C   0  0  0  0  0  0  0  0  0  0  0  0
  -12.4163  -18.3920   18.3414 N   0  0  0  0  0  0  0  0  0  0  0  0
  -14.7737  -18.8036   20.1470 O   0  0  0  0  0  0  0  0  0  0  0  0
  -12.2438  -17.3653   23.3726 C   0  0  0  0  0  0  0  0  0  0  0  0
  -12.8747  -18.4415   24.0039 C   0  0  0  0  0  0  0  0  0  0  0  0
  -14.2666  -18.5628   23.9564 C   0  0  0  0  0  0  0  0  0  0  0  0
  -15.0285  -17.6087   23.2753 C   0  0  0  0  0  0  0  0  0  0  0  0
   -7.6857  -18.4558   20.9914 C   0  0  0  0  0  0  0  0  0  0  0  0
  -14.8927  -16.5045   19.6885 N   0  0  0  0  0  0  0  0  0  0  0  0
  -17.8234  -14.6947   20.7928 O   0  0  0  0  0  0  0  0  0  0  0  0
   -8.9424  -17.5546   19.1746 C   0  0  0  0  0  0  0  0  0  0  0  0
  -16.6419  -14.5838   18.7804 N   0  0  0  0  0  0  0  0  0  0  0  0
  -13.6848  -14.6356   18.9991 O   0  0  0  0  0  0  0  0  0  0  0  0
  -10.1202  -18.5072   19.3761 C   0  0  0  0  0  0  0  0  0  0  0  0
  -10.0744  -19.1641   20.7240 C   0  0  0  0  0  0  0  0  0  0  0  0
   -8.9645  -19.1735   21.4672 C   0  0  0  0  0  0  0  0  0  0  0  0
   -8.9439  -19.8409   22.7876 C   0  0  0  0  0  0  0  0  0  0  0  0
 20 19  1  0
 20 21  1  0
 23 11  1  0
 19 18  1  0
 16 11  1  0
 16 22  1  0
 21 22  1  0
 21 38  1  0
 18 38  1  0
 11 28  1  0
 11 12  1  0
 22 39  1  0
 22 35  1  0
 28 10  1  0
 38 17  1  0
 37 14  1  0
 37 40  1  0
  9 14  1  0
 12 35  1  0
 12 29  2  0
 10 40  1  0
 10  3  2  0
 35 13  1  0
 14 34  1  0
 40 41  1  0
 17 36  2  0
 17 13  1  0
 13 24  1  0
 41 42  2  0
 34 27  1  0
 34 42  1  0
 27 15  1  0
 42 43  1  0
 24 25  1  0
 15  1  2  0
 15  8  1  0
 25 26  2  0
 25 33  1  0
 43  8  2  0
 43  4  1  0
 26 30  1  0
 33 32  2  0
  1  2  1  0
  8  7  1  0
 30 31  2  0
  4  5  2  0
 32 31  1  0
  2  7  1  0
  7  6  2  0
  5  6  1  0
A    1
C1
A    2
N1
A    3
O1
A    4
C10
A    5
C11
A    6
C12
A    7
C13
A    8
C14
A    9
C15
A   10
C16
A   11
C17
A   12
C18
A   13
C19
A   14
N2
A   15
C2
A   16
O2
A   17
C20
A   18
C21
A   19
C22
A   20
C23
A   21
C24
A   22
C25
A   23
C26
A   24
C27
A   25
C28
A   26
C29
A   27
C3
A   28
N3
A   29
O3
A   30
C30
A   31
C31
A   32
C32
A   33
C33
A   34
C4
A   35
N4
A   36
O4
A   37
C5
A   38
N5
A   39
O5
A   40
C6
A   41
C7
A   42
C8
A   43
C9
M  END
